/*--------------------------------*- C++ -*----------------------------------*\
| =========                 |                                                 |
| \\      /  F ield         | OpenFOAM: The Open Source CFD Toolbox           |
|  \\    /   O peration     | Version:  2206                                  |
|   \\  /    A nd           | Website:  www.openfoam.com                      |
|    \\/     M anipulation  |                                                 |
\*---------------------------------------------------------------------------*/
FoamFile
{
    version     2.0;
    format      ascii;
    arch        "LSB;label=32;scalar=64";
    class       featureEdgeMesh;
    location    "constant/triSurface";
    object      cylinder.eMesh;
}
// * * * * * * * * * * * * * * * * * * * * * * * * * * * * * * * * * * * * * //


// points:

120
(
(0.00998583 0.000532222 0.005)
(0.01 1.22465e-18 0.005)
(0.00998583 -0.000532222 -0.005)
(0.01 3.67394e-18 -0.005)
(0.00998583 -0.000532222 0.005)
(0.00987268 -0.00159064 0.005)
(0.00987268 -0.00159064 -0.005)
(0.00964768 -0.00263103 0.005)
(0.00964768 -0.00263103 -0.005)
(0.00931336 -0.00364161 0.005)
(0.00931336 -0.00364161 -0.005)
(0.00887352 -0.00461092 0.005)
(0.00887352 -0.00461092 -0.005)
(0.00833314 -0.005528 0.005)
(0.00833314 -0.005528 -0.005)
(0.00769834 -0.00638244 0.005)
(0.00769834 -0.00638244 -0.005)
(0.00697631 -0.00716457 0.005)
(0.00697631 -0.00716457 -0.005)
(0.00617525 -0.00786552 0.005)
(0.00617525 -0.00786552 -0.005)
(0.00530421 -0.00847734 0.005)
(0.00530421 -0.00847734 -0.005)
(0.00437307 -0.00899312 0.005)
(0.00437307 -0.00899312 -0.005)
(0.00339239 -0.009407 0.005)
(0.00339239 -0.009407 -0.005)
(0.00237327 -0.0097143 0.005)
(0.00237327 -0.0097143 -0.005)
(0.00132726 -0.00991153 0.005)
(0.00132726 -0.00991153 -0.005)
(0.000266205 -0.00999646 0.005)
(0.000266205 -0.00999646 -0.005)
(-0.000797861 -0.00996812 0.005)
(-0.000797861 -0.00996812 -0.005)
(-0.00185289 -0.00982684 0.005)
(-0.00185289 -0.00982684 -0.005)
(-0.00288692 -0.00957422 0.005)
(-0.00288692 -0.00957422 -0.005)
(-0.00388824 -0.00921312 0.005)
(-0.00388824 -0.00921312 -0.005)
(-0.00484551 -0.00874763 0.005)
(-0.00484551 -0.00874763 -0.005)
(-0.00574787 -0.00818303 0.005)
(-0.00574787 -0.00818303 -0.005)
(-0.00658511 -0.00752571 0.005)
(-0.00658511 -0.00752571 -0.005)
(-0.00734774 -0.00678312 0.005)
(-0.00734774 -0.00678312 -0.005)
(-0.00802712 -0.00596367 0.005)
(-0.00802712 -0.00596367 -0.005)
(-0.00861554 -0.00507666 0.005)
(-0.00861554 -0.00507666 -0.005)
(-0.00910635 -0.00413212 0.005)
(-0.00910635 -0.00413212 -0.005)
(-0.00949398 -0.00314077 0.005)
(-0.00949398 -0.00314077 -0.005)
(-0.00977403 -0.00211383 0.005)
(-0.00977403 -0.00211383 -0.005)
(-0.00994335 -0.00106293 0.005)
(-0.00994335 -0.00106293 -0.005)
(-0.01 0 0.005)
(-0.01 0 -0.005)
(-0.00994335 0.00106293 0.005)
(-0.00994335 0.00106293 -0.005)
(-0.00977403 0.00211383 0.005)
(-0.00977403 0.00211383 -0.005)
(-0.00949398 0.00314077 0.005)
(-0.00949398 0.00314077 -0.005)
(-0.00910635 0.00413212 0.005)
(-0.00910635 0.00413212 -0.005)
(-0.00861554 0.00507666 0.005)
(-0.00861554 0.00507666 -0.005)
(-0.00802712 0.00596367 0.005)
(-0.00802712 0.00596367 -0.005)
(-0.00734774 0.00678312 0.005)
(-0.00734774 0.00678312 -0.005)
(-0.00658511 0.00752571 0.005)
(-0.00658511 0.00752571 -0.005)
(-0.00574787 0.00818303 0.005)
(-0.00574787 0.00818303 -0.005)
(-0.00484551 0.00874763 0.005)
(-0.00484551 0.00874763 -0.005)
(-0.00388824 0.00921312 0.005)
(-0.00388824 0.00921312 -0.005)
(-0.00288692 0.00957422 0.005)
(-0.00288692 0.00957422 -0.005)
(-0.00185289 0.00982684 0.005)
(-0.00185289 0.00982684 -0.005)
(-0.000797861 0.00996812 0.005)
(-0.000797861 0.00996812 -0.005)
(0.000266205 0.00999646 0.005)
(0.000266205 0.00999646 -0.005)
(0.00132726 0.00991153 0.005)
(0.00132726 0.00991153 -0.005)
(0.00237327 0.0097143 0.005)
(0.00237327 0.0097143 -0.005)
(0.00339239 0.009407 0.005)
(0.00339239 0.009407 -0.005)
(0.00437307 0.00899312 0.005)
(0.00437307 0.00899312 -0.005)
(0.00530421 0.00847734 0.005)
(0.00530421 0.00847734 -0.005)
(0.00617525 0.00786552 0.005)
(0.00617525 0.00786552 -0.005)
(0.00697631 0.00716457 0.005)
(0.00697631 0.00716457 -0.005)
(0.00769834 0.00638244 0.005)
(0.00769834 0.00638244 -0.005)
(0.00833314 0.005528 0.005)
(0.00833314 0.005528 -0.005)
(0.00887352 0.00461092 0.005)
(0.00887352 0.00461092 -0.005)
(0.00931336 0.00364161 0.005)
(0.00931336 0.00364161 -0.005)
(0.00964768 0.00263103 0.005)
(0.00964768 0.00263103 -0.005)
(0.00987268 0.00159064 0.005)
(0.00987268 0.00159064 -0.005)
(0.00998583 0.000532222 -0.005)
)


// edges:

120
(
(0 1)
(2 3)
(1 4)
(4 5)
(6 2)
(5 7)
(8 6)
(7 9)
(10 8)
(9 11)
(12 10)
(11 13)
(14 12)
(13 15)
(16 14)
(15 17)
(18 16)
(17 19)
(20 18)
(19 21)
(22 20)
(21 23)
(24 22)
(23 25)
(26 24)
(25 27)
(28 26)
(27 29)
(30 28)
(29 31)
(32 30)
(31 33)
(34 32)
(33 35)
(36 34)
(35 37)
(38 36)
(37 39)
(40 38)
(39 41)
(42 40)
(41 43)
(44 42)
(43 45)
(46 44)
(45 47)
(48 46)
(47 49)
(50 48)
(49 51)
(52 50)
(51 53)
(54 52)
(53 55)
(56 54)
(55 57)
(58 56)
(57 59)
(60 58)
(59 61)
(62 60)
(61 63)
(64 62)
(63 65)
(66 64)
(65 67)
(68 66)
(67 69)
(70 68)
(69 71)
(72 70)
(71 73)
(74 72)
(73 75)
(76 74)
(75 77)
(78 76)
(77 79)
(80 78)
(79 81)
(82 80)
(81 83)
(84 82)
(83 85)
(86 84)
(85 87)
(88 86)
(87 89)
(90 88)
(89 91)
(92 90)
(91 93)
(94 92)
(93 95)
(96 94)
(95 97)
(98 96)
(97 99)
(100 98)
(99 101)
(102 100)
(101 103)
(104 102)
(103 105)
(106 104)
(105 107)
(108 106)
(107 109)
(110 108)
(109 111)
(112 110)
(111 113)
(114 112)
(113 115)
(116 114)
(115 117)
(118 116)
(117 0)
(119 118)
(3 119)
)

// * * * * * * * * * * * * * * * * * * * * * * * * * * * * * * * * * * * * * //


// ************************************************************************* //
